*Heading
** Job name: Job-1 Model name: myFGMIIplate
** Generated by: Abaqus/CAE 2017
*Preprint, echo=NO, model=NO, history=NO, contact=NO
**
** PARTS
**
*Part, name=plate
*End Part
**
**
** ASSEMBLY
**
*Assembly, name=Assembly
**
*Instance, name=plate-1, part=plate
20.4833395016046,           0.,           0.
*Node
      1,   21.6506348,         44.5
      2,           0.,          32.
      3,           0.,           0.
      4,          70.,           0.
      5,          70.,          90.
      6,           0.,          90.
      7,   22.5166607,          45.
      8,   21.8095531,   44.2928925
      9,   22.0166607,    44.133976
     10,   22.2578411,   44.0340729
     11,   22.5166607,          44.
     12,   22.7754803,   44.0340729
     13,   23.0166607,    44.133976
     14,   23.2237663,   44.2928925
     15,   23.3826866,         44.5
     16,   23.4825859,   44.7411804
     17,   23.5166607,          45.
     18,   23.4825859,   45.2588196
     19,   23.3826866,         45.5
     20,   23.2237663,   45.7071075
** ... 11202 like lines cut
*Element, type=CPS8
   1,   570,   568,   628,   629,  3776,  3777,  3778,  3779
   2,   220,   783,  3145,   716,  3780,  3781,  3782,  3783
   3,  1133,  1127,  1160,  1167,  3784,  3785,  3786,  3787
   4,  1471,  3272,  1441,  1411,  3788,  3789,  3790,  3791
   5,  2244,  2133,  3194,  2387,  3792,  3793,  3794,  3795
   6,  2082,  1883,  1987,  2207,  3796,  3797,  3798,  3799
   7,   201,   202,  1985,  1846,  3800,  3801,  3802,  3803
   8,   200,   201,  1846,  1986,  3804,  3803,  3805,  3806
   9,   203,   204,  1984,  1847,  3807,  3808,  3809,  3810
  10,  3192,  1270,  1239,   239,  3811,  3812,  3813,  3814
  11,  1020,  1090,  1095,   985,  3815,  3816,  3817,  3818
  12,   590,   591,    46,    45,  3819,  3820,  3821,  3822
  13,   591,   593,    47,    46,  3823,  3824,  3825,  3820
  14,   644,   646,   586,   585,  3826,  3827,  3828,  3829
  15,    43,    42,   585,   586,  3830,  3831,  3828,  3832
  16,    38,    37,   575,   576,  3833,  3834,  3835,  3836
  17,   563,   565,    33,    32,  3837,  3838,  3839,  3840
  18,   563,   571,   602,   604,  3841,  3842,  3843,  3844
  19,    26,    25,   559,   546,  3845,  3846,  3847,  3848
  20,    24,    23,   553,   608,  3849,  3850,  3851,  3852
** ... 3653 like lines cut
*Nset, nset=All, generate
     1,  11222,      1
*Elset, elset=All, generate
    1,  3673,     1
** Section: Solid
*Solid Section, elset=All, material=GradedLinearElastic
,
*End Instance
**
*Nset, nset=All, instance=plate-1, generate
     1,  11222,      1
*Elset, elset=All, instance=plate-1, generate
    1,  3673,     1
*Nset, nset=Bottom, instance=plate-1
    3,    4,   74,   75,   76,   77,   78,   79,   80,   81,   82,   83,   84,   85,   86,   87
   88,   89,   90,   91,   92,   93,   94,   95,   96,   97,   98,   99,  100,  101,  102,  103
  104,  105,  106,  107, 3937, 3944, 4031, 4074, 4108, 4114, 4115, 4160, 4287, 4375, 4470, 4475
 4560, 4649, 4728, 4812, 4900, 4984, 5078, 6443, 6445, 9233, 9234, 9235, 9236, 9239, 9242, 9244
 9245, 9247, 9248, 9249, 9252, 9253, 9257
*Elset, elset=Bottom, instance=plate-1
   44,   46,   68,   79,   90,   91,   92,  104,  136,  159,  183,  184,  207,  230,  250,  272
  295,  317,  341,  780,  781, 2235, 2237, 2238, 2239, 2242, 2245, 2247, 2249, 2251, 2253, 2254
 2256, 2257, 2260
*Nset, nset=RightBottom, instance=plate-1
 4,
*Nset, nset=Top, instance=plate-1
    5,    6,  152,  153,  154,  155,  156,  157,  158,  159,  160,  161,  162,  163,  164,  165
  166,  167,  168,  169,  170,  171,  172,  173,  174,  175,  176,  177,  178,  179,  180,  181
  182,  183,  184,  185, 4236, 4243, 4372, 4465, 4552, 4640, 4718, 4805, 4892, 4977, 5068, 5147
 5150, 5157, 5207, 5250, 5288, 5320, 6483, 6485, 6486, 6487, 6489, 6491, 6493, 6495, 9237, 9238
 9241, 9255, 9258, 9259, 9262, 9263, 9264
*Elset, elset=Top, instance=plate-1
  123,  125,  158,  181,  204,  227,  247,  269,  292,  314,  338,  361,  362,  365,  378,  389
  399,  407,  809,  810,  811,  812,  813,  814,  815,  816, 2240, 2241, 2244, 2259, 2261, 2262
 2264, 2265, 2266
*Nset, nset=crackFront, instance=plate-1
 7,
*Nset, nset=crackPlaneCoarse, instance=plate-1
    1,    2,   31,   32,   33,   34,   35,   36,   37,   38,   39,   40,   41,   42,   43,   44
   45,   46,   47,   48,   49,   50,   51,   52,   53,   54,   55,   56,   57,   58, 3746, 3747
 3748, 3749, 3750, 3751, 3752, 3753, 3754, 3755, 3756, 3757, 3758, 3759, 3760, 3761, 3762, 3763
 3764, 3765, 3766, 3767, 3768, 3769, 3770, 3771, 3772, 3773, 3774, 3775, 3821, 3825, 3830, 3833
 3839, 3890, 3892, 3895, 3901, 3990, 3995, 4000, 4038, 4080, 4083, 5371, 5379, 5414, 5415, 5420
 6310, 6337, 6341, 6343, 6345, 6353, 6354, 6358, 6359, 6363, 6366, 6368, 6372, 6375, 6376, 6381
 6382, 6387, 6388, 6390, 6394, 6397, 6398, 6402, 6403, 6409, 6413, 6421, 6426, 6427, 6497, 6601
 6607, 6636, 6638, 6648, 9198, 9199
*Elset, elset=crackPlaneCoarse, instance=plate-1
   12,   13,   15,   16,   17,   31,   32,   33,   34,   58,   59,   60,   70,   81,   82,  423
  425,  435,  436,  437,  717,  726,  727,  728,  729,  731,  732,  733,  734,  736,  737,  738
  739,  740,  741,  742,  743,  744,  745,  746,  747,  748,  749,  750,  751,  753,  755,  757
  759,  760,  817,  863,  866,  880,  882,  887, 2205, 2206
*Nset, nset=crackPlaneRefined, instance=plate-1
     1,     7,   214,   215,   216,  3743,  3744,  3745,  3746, 11051, 11055, 11058, 11193, 11196, 11197, 11198
 11222,
*Elset, elset=crackPlaneRefined, instance=plate-1
 3578, 3579, 3580, 3647, 3648, 3649, 3650, 3673
*Nset, nset=crackRefined, instance=plate-1
    1,    8,    9,   10,   11,   12,   13,   14,   15,   16,   17,   18,   19,   20,   21,   22
   23,   24,   25,   26,   27,   28,   29,   30, 3746, 3845, 3849, 3857, 3864, 3867, 3870, 3874
 3886, 5201, 6311, 6314, 6320, 6324, 6327, 6331, 6424, 6425, 6428, 6524, 6527, 6529, 6539, 6545
 6547,
*Elset, elset=crackRefined, instance=plate-1
   19,   20,   22,   24,   25,   26,   27,   30,  376,  718,  719,  721,  722,  723,  725,  758
  759,  760,  829,  830,  831,  835,  837,  838, 3580, 3583, 3586, 3589, 3592, 3595, 3598, 3601
 3604, 3607, 3610, 3613, 3616, 3619, 3622, 3625, 3628, 3631, 3634, 3637, 3640, 3643, 3646, 3649
*Nset, nset=seamCrackEdge, instance=plate-1
     1,     2,     7,    31,    32,    33,    34,    35,    36,    37,    38,    39,    40,    41,    42,    43
    44,    45,    46,    47,    48,    49,    50,    51,    52,    53,    54,    55,    56,    57,    58,   214
   215,   216,  3743,  3744,  3745,  3746,  3747,  3748,  3749,  3750,  3751,  3752,  3753,  3754,  3755,  3756
  3757,  3758,  3759,  3760,  3761,  3762,  3763,  3764,  3765,  3766,  3767,  3768,  3769,  3770,  3771,  3772
  3773,  3774,  3775,  3821,  3825,  3830,  3833,  3839,  3890,  3892,  3895,  3901,  3990,  3995,  4000,  4038
  4080,  4083,  5371,  5379,  5414,  5415,  5420,  6310,  6337,  6341,  6343,  6345,  6353,  6354,  6358,  6359
  6363,  6366,  6368,  6372,  6375,  6376,  6381,  6382,  6387,  6388,  6390,  6394,  6397,  6398,  6402,  6403
  6409,  6413,  6421,  6426,  6427,  6497,  6601,  6607,  6636,  6638,  6648,  9198,  9199, 11051, 11055, 11058
 11193, 11196, 11197, 11198, 11222
*Elset, elset=seamCrackEdge, instance=plate-1
   12,   13,   15,   16,   17,   31,   32,   33,   34,   58,   59,   60,   70,   81,   82,  423
  425,  435,  436,  437,  717,  726,  727,  728,  729,  731,  732,  733,  734,  736,  737,  738
  739,  740,  741,  742,  743,  744,  745,  746,  747,  748,  749,  750,  751,  753,  755,  757
  759,  760,  817,  863,  866,  880,  882,  887, 2205, 2206, 3578, 3579, 3580, 3647, 3648, 3649
 3650, 3673
*End Assembly
**
** MATERIALS
**
*Material, name=GradedLinearElastic
*Elastic, dependencies=1
   0.1,  0.45, ,   0.1
 1e+06,  0.45, , 1e+06
*User Defined Field
*INITIAL CONDITIONS, TYPE=FIELD, VARIABLE=1
All, 100
** ----------------------------------------------------------------
**
** STEP: ApplyLoad
**
*Step, name=ApplyLoad, nlgeom=NO
*Static
1., 1., 1e-05, 1.
**
** BOUNDARY CONDITIONS
**
** Name: BTM Type: Displacement/Rotation
*Boundary
Bottom, 2, 2
** Name: Right Type: Displacement/Rotation
*Boundary
RightBottom, 1, 1
** Name: load Type: Displacement/Rotation
*Boundary
Top, 2, 2, 0.95
*FIELD, USER
All,
**
** OUTPUT REQUESTS
**
*Restart, write, frequency=0
**
** FIELD OUTPUT: F-Output-1
**
*Output, field
*Node Output
RF, U
*Element Output, directions=YES
E, S
*Output, history, frequency=0
*FILE FORMAT, ASCII
*NODE FILE
 U
**
** HISTORY OUTPUT: J-int
**
*Contour Integral, crack name=J-int_Crack-1, contours=5, crack tip nodes
crackFront, crackFront, 0.866025, 0.5, 0.
**
** HISTORY OUTPUT: SIF
**
*Contour Integral, crack name=SIF_Crack-1, contours=5, crack tip nodes, type=K FACTORS
crackFront, crackFront, 0.866025, 0.5, 0.
*End Step
