*Heading
** Job name: Job-1 Model name: myHOMIplate
** Generated by: Abaqus/CAE 2017
*Preprint, echo=NO, model=NO, history=NO, contact=NO
**
** PARTS
**
*Part, name=plate
*End Part
**
**
** ASSEMBLY
**
*Assembly, name=Assembly
**
*Instance, name=plate-1, part=plate
*Node
      1,   27.7128124,         44.5
      2,           0.,         28.5
      3,           0.,           0.
      4,          70.,           0.
      5,          70.,          90.
      6,           0.,          90.
      7,   28.5788383,          45.
      8,   27.8717308,   44.2928925
      9,   28.0788383,    44.133976
     10,   28.3200188,   44.0340729
     11,   28.5788383,          44.
     12,   28.8376579,   44.0340729
     13,   29.0788383,    44.133976
     14,   29.2859459,   44.2928925
     15,   29.4448643,         44.5
     16,   29.5447636,   44.7411804
     17,   29.5788383,          45.
     18,   29.5447636,   45.2588196
     19,   29.4448643,         45.5
     20,   29.2859459,   45.7071075
** ... 12636 like lines cut
*Element, type=CPS8
   1,   595,   592,   666,   667,  4257,  4258,  4259,  4260
   2,   605,   607,    46,    45,  4261,  4262,  4263,  4264
   3,  1467,  1542,  1507,  3855,  4265,  4266,  4267,  4268
   4,  2528,  2505,  2605,   424,  4269,  4270,  4271,  4272
   5,  2878,  2819,   439,  2898,  4273,  4274,  4275,  4276
   6,   206,   207,  2221,  2201,  4277,  4278,  4279,  4280
   7,   207,   208,  2202,  2221,  4281,  4282,  4283,  4278
   8,   208,   209,  2220,  2202,  4284,  4285,  4286,  4282
   9,  2219,  2208,   425,  3106,  4287,  4288,  4289,  4290
  10,  1427,   251,  2364,  2152,  4291,  4292,  4293,  4294
  11,   889,   947,  1058,  2156,  4295,  4296,  4297,  4298
  12,    52,    51,   613,   616,  4299,  4300,  4301,  4302
  13,  4238,   612,   611,  4237,  4303,  4304,  4305,  4306
  14,    43,    42,   598,   600,  4307,  4308,  4309,  4310
  15,    39,    38,   590,   592,  4311,  4312,  4313,  4314
  16,   577,   589,   629,   630,  4315,  4316,  4317,  4318
  17,   647,   572,   652,   721,  4319,  4320,  4321,  4322
  18,    24,    23,   567,   637,  4323,  4324,  4325,  4326
  19,   574,    22,    21,   644,  4327,  4328,  4329,  4330
  20,    21,    20,   556,   644,  4331,  4332,  4333,  4329
** ... 4125 like lines cut
*Nset, nset=All, generate
     1,  12656,      1
*Elset, elset=All, generate
    1,  4145,     1
** Section: Solid
*Solid Section, elset=All, material=LinearElastic
,
*End Instance
**
*Nset, nset=All, instance=plate-1, generate
     1,  12656,      1
*Elset, elset=All, instance=plate-1, generate
    1,  4145,     1
*Nset, nset=Bottom, instance=plate-1
     3,     4,    81,    82,    83,    84,    85,    86,    87,    88,    89,    90,    91,    92,    93,    94
    95,    96,    97,    98,    99,   100,   101,   102,   103,   104,   105,   106,   107,   108,   109,   110
   111,   112,   113,   114,  4557,  4560,  4564,  4572,  4648,  4654,  4727,  4768,  4801,  4832,  4834,  4869
  4899,  4920,  4942,  4961,  4977,  4990,  7005,  7014,  7016,  7018,  7020, 10657, 10658, 10659, 10660, 10662
 10663, 10664, 10666, 10670, 10671, 10672, 10673
*Elset, elset=Bottom, instance=plate-1
   78,   79,   80,   82,  102,  104,  123,  134,  143,  151,  152,  161,  169,  175,  181,  186
  190,  194,  795,  800,  801,  802,  803, 2658, 2659, 2661, 2662, 2666, 2667, 2668, 2669, 2671
 2672, 2674, 2677
*Nset, nset=RightBottom, instance=plate-1
 4,
*Nset, nset=Top, instance=plate-1
     5,     6,   159,   160,   161,   162,   163,   164,   165,   166,   167,   168,   169,   170,   171,   172
   173,   174,   175,   176,   177,   178,   179,   180,   181,   182,   183,   184,   185,   186,   187,   188
   189,   190,   191,   192,  5138,  5141,  5203,  5260,  5265,  5316,  5321,  5367,  5412,  5454,  5534,  5570
  5600,  5626,  5648,  5665,  5679,  5687,  5689,  5691,  7053,  7057,  7059,  7061,  7063,  7065,  7067,  7069
  7071,  7073,  7075, 10690, 10692, 10694, 10709
*Elset, elset=Top, instance=plate-1
  233,  234,  250,  266,  267,  281,  282,  295,  307,  318,  339,  348,  356,  363,  369,  374
  378,  380,  381,  382,  825,  827,  828,  829,  830,  831,  832,  833,  834,  835,  836, 2688
 2690, 2692, 2705
*Nset, nset=crackFront, instance=plate-1
 7,
*Nset, nset=crackPlaneCoarse, instance=plate-1
     1,     2,    31,    32,    33,    34,    35,    36,    37,    38,    39,    40,    41,    42,    43,    44
    45,    46,    47,    48,    49,    50,    51,    52,    53,    54,    55,    56,    57,    58,    59,    60
    61,    62,    63,    64,    65,    66,    67,  4218,  4219,  4220,  4221,  4222,  4223,  4224,  4225,  4226
  4227,  4228,  4229,  4230,  4231,  4232,  4233,  4234,  4235,  4236,  4237,  4238,  4239,  4240,  4241,  4242
  4243,  4244,  4245,  4246,  4247,  4248,  4249,  4250,  4251,  4252,  4253,  4254,  4255,  4256,  4263,  4299
  4306,  4307,  4311,  4510,  4517,  4521,  4614,  4689,  4694,  4730,  4809,  5794,  5840,  5857,  5864,  5868
  6805,  6827,  6831,  6833,  6842,  6847,  6851,  6858,  6860,  6861,  6865,  6867,  6870,  6874,  6876,  6883
  6886,  6887,  6891,  6894,  6901,  6905,  6910,  6913,  6916,  6917,  6920,  6923,  6930,  6931,  6936,  6937
  6941,  6943,  6946,  6947,  6950,  6951,  6956,  6957,  6962,  6963,  6969,  6981,  6986,  6987,  7166,  7204
  7211,  7226,  7243,  7418,  7567,  7694, 10591, 10592, 10628, 12441
*Elset, elset=crackPlaneCoarse, instance=plate-1
    2,   12,   13,   14,   15,   66,   68,   69,   93,  114,  115,  125,  145,  409,  422,  426
  428,  429,  719,  728,  729,  730,  733,  734,  736,  738,  739,  740,  741,  742,  743,  744
  745,  747,  748,  749,  750,  751,  753,  755,  756,  757,  758,  759,  760,  761,  763,  764
  765,  766,  767,  768,  769,  770,  771,  772,  773,  774,  775,  776,  778,  782,  784,  785
  879,  898,  902,  909,  917,  999, 1074, 1137, 2607, 2608, 2634, 3844
*Nset, nset=crackPlaneRefined, instance=plate-1
     1,     7,   223,   224,   225,  4215,  4216,  4217,  4218, 12485, 12489, 12492, 12627, 12630, 12631, 12632
 12656,
*Elset, elset=crackPlaneRefined, instance=plate-1
 4050, 4051, 4052, 4119, 4120, 4121, 4122, 4145
*Nset, nset=crackRefined, instance=plate-1
    1,    8,    9,   10,   11,   12,   13,   14,   15,   16,   17,   18,   19,   20,   21,   22
   23,   24,   25,   26,   27,   28,   29,   30, 4218, 4323, 4328, 4331, 4493, 4516, 6022, 6806
 6809, 6814, 6815, 6817, 6819, 6825, 6978, 6984, 6985, 6988, 7107, 7110, 7114, 7116, 7120, 7124
 7128,
*Elset, elset=crackRefined, instance=plate-1
   18,   19,   20,   62,   67,  471,  720,  721,  722,  723,  724,  725,  727,  781,  783,  784
  785,  852,  853,  855,  856,  858,  860,  862, 4052, 4055, 4058, 4061, 4064, 4067, 4070, 4073
 4076, 4079, 4082, 4085, 4088, 4091, 4094, 4097, 4100, 4103, 4106, 4109, 4112, 4115, 4118, 4121
*Nset, nset=seamCrackEdge, instance=plate-1
     1,     2,     7,    31,    32,    33,    34,    35,    36,    37,    38,    39,    40,    41,    42,    43
    44,    45,    46,    47,    48,    49,    50,    51,    52,    53,    54,    55,    56,    57,    58,    59
    60,    61,    62,    63,    64,    65,    66,    67,   223,   224,   225,  4215,  4216,  4217,  4218,  4219
  4220,  4221,  4222,  4223,  4224,  4225,  4226,  4227,  4228,  4229,  4230,  4231,  4232,  4233,  4234,  4235
  4236,  4237,  4238,  4239,  4240,  4241,  4242,  4243,  4244,  4245,  4246,  4247,  4248,  4249,  4250,  4251
  4252,  4253,  4254,  4255,  4256,  4263,  4299,  4306,  4307,  4311,  4510,  4517,  4521,  4614,  4689,  4694
  4730,  4809,  5794,  5840,  5857,  5864,  5868,  6805,  6827,  6831,  6833,  6842,  6847,  6851,  6858,  6860
  6861,  6865,  6867,  6870,  6874,  6876,  6883,  6886,  6887,  6891,  6894,  6901,  6905,  6910,  6913,  6916
  6917,  6920,  6923,  6930,  6931,  6936,  6937,  6941,  6943,  6946,  6947,  6950,  6951,  6956,  6957,  6962
  6963,  6969,  6981,  6986,  6987,  7166,  7204,  7211,  7226,  7243,  7418,  7567,  7694, 10591, 10592, 10628
 12441, 12485, 12489, 12492, 12627, 12630, 12631, 12632, 12656
*Elset, elset=seamCrackEdge, instance=plate-1
    2,   12,   13,   14,   15,   66,   68,   69,   93,  114,  115,  125,  145,  409,  422,  426
  428,  429,  719,  728,  729,  730,  733,  734,  736,  738,  739,  740,  741,  742,  743,  744
  745,  747,  748,  749,  750,  751,  753,  755,  756,  757,  758,  759,  760,  761,  763,  764
  765,  766,  767,  768,  769,  770,  771,  772,  773,  774,  775,  776,  778,  782,  784,  785
  879,  898,  902,  909,  917,  999, 1074, 1137, 2607, 2608, 2634, 3844, 4050, 4051, 4052, 4119
 4120, 4121, 4122, 4145
*End Assembly
**
** MATERIALS
**
*Material, name=LinearElastic
*Elastic
280., 0.45
** ----------------------------------------------------------------
**
** STEP: ApplyLoad
**
*Step, name=ApplyLoad, nlgeom=NO
*Static
1., 1., 1e-05, 1.
**
** BOUNDARY CONDITIONS
**
** Name: bottomFixed Type: Displacement/Rotation
*Boundary
Bottom, 2, 2
** Name: load Type: Displacement/Rotation
*Boundary
Top, 2, 2, 1.4
** Name: rightFixed Type: Displacement/Rotation
*Boundary
RightBottom, 1, 1
**
** OUTPUT REQUESTS
**
*Restart, write, frequency=0
**
** FIELD OUTPUT: F-Output-1
**
*Output, field
*Node Output
RF, U
*Element Output, directions=YES
E, S
*Output, history, frequency=0
*FILE FORMAT, ASCII
*NODE FILE
 U
**
** HISTORY OUTPUT: J-int
**
*Contour Integral, crack name=J-int_Crack-1, contours=5, crack tip nodes
crackFront, crackFront, 0.866025, 0.5, 0.
**
** HISTORY OUTPUT: SIF
**
*Contour Integral, crack name=SIF_Crack-1, contours=5, crack tip nodes, type=K FACTORS
crackFront, crackFront, 0.866025, 0.5, 0.
*End Step
